R1_C1v0_0
     RDKit          3D

 30 32  0  0  0  0  0  0  0  0999 V2000
   51.1576  -16.9689  -14.8878 C   0  0  0  0  0  0  0  0  0  0  0  0
   50.4853  -18.1085  -15.3344 C   0  0  0  0  0  0  0  0  0  0  0  0
   49.3551  -18.5599  -14.6540 C   0  0  0  0  0  0  0  0  0  0  0  0
   48.8706  -17.8531  -13.5472 C   0  0  0  0  0  0  0  0  0  0  0  0
   49.5433  -16.7231  -13.0883 C   0  0  0  0  0  0  0  0  0  0  0  0
   50.6986  -16.2912  -13.7497 C   0  0  0  0  0  0  0  0  0  0  0  0
   51.3815  -15.0677  -13.2609 C   0  0  0  0  0  0  0  0  0  0  0  0
   50.6666  -14.0746  -13.1125 O   0  0  0  0  0  0  0  0  0  0  0  0
   52.8061  -15.0694  -12.9970 C   0  0  0  0  0  0  0  0  0  0  0  0
   53.6521  -13.9866  -12.8742 C   0  0  0  0  0  0  0  0  0  0  0  0
   54.9666  -14.2567  -12.6129 N   0  0  0  0  0  0  0  0  0  0  0  0
   55.1309  -15.5494  -12.4948 C   0  0  0  0  0  0  0  0  0  0  0  0
   53.7146  -16.4958  -12.6988 S   0  0  0  0  0  0  0  0  0  0  0  0
   56.3128  -16.1157  -12.2303 N   0  0  0  0  0  0  0  0  0  0  0  0
   53.2975  -12.7041  -12.9954 N   0  0  0  0  0  0  0  0  0  0  0  0
   47.7419  -18.2189  -12.8596 O   0  0  0  0  0  0  0  0  0  0  0  0
   46.9535  -19.1509  -13.6089 C   0  0  0  0  0  0  0  0  0  0  0  0
   47.8314  -20.2444  -14.1948 C   0  0  0  0  0  0  0  0  0  0  0  0
   48.7610  -19.6973  -15.1375 O   0  0  0  0  0  0  0  0  0  0  0  0
   52.0274  -16.6152  -15.4365 H   0  0  0  0  0  0  0  0  0  0  0  0
   50.8423  -18.6461  -16.2090 H   0  0  0  0  0  0  0  0  0  0  0  0
   49.1625  -16.1766  -12.2289 H   0  0  0  0  0  0  0  0  0  0  0  0
   57.1279  -15.5286  -12.1079 H   0  0  0  0  0  0  0  0  0  0  0  0
   56.4284  -17.1140  -12.1295 H   0  0  0  0  0  0  0  0  0  0  0  0
   53.9798  -11.9652  -12.8796 H   0  0  0  0  0  0  0  0  0  0  0  0
   52.3306  -12.4152  -13.1263 H   0  0  0  0  0  0  0  0  0  0  0  0
   46.2143  -19.5833  -12.9273 H   0  0  0  0  0  0  0  0  0  0  0  0
   46.4166  -18.6029  -14.3931 H   0  0  0  0  0  0  0  0  0  0  0  0
   47.2176  -20.9802  -14.7235 H   0  0  0  0  0  0  0  0  0  0  0  0
   48.3959  -20.7679  -13.4132 H   0  0  0  0  0  0  0  0  0  0  0  0
  1  2  4  0
  2  3  4  0
  3  4  4  0
  4  5  4  0
  5  6  4  0
  6  7  1  0
  7  8  2  0
  7  9  1  0
  9 10  4  0
 10 11  4  0
 11 12  4  0
 12 13  4  0
 12 14  1  0
 10 15  1  0
  4 16  1  0
 16 17  1  0
 17 18  1  0
 18 19  1  0
  6  1  4  0
 19  3  1  0
 13  9  4  0
  1 20  1  0
  2 21  1  0
  5 22  1  0
 14 23  1  0
 14 24  1  0
 15 25  1  0
 15 26  1  0
 17 27  1  0
 17 28  1  0
 18 29  1  0
 18 30  1  0
M  END
$$$$
R1_C1v0_1
     RDKit          3D

 30 32  0  0  0  0  0  0  0  0999 V2000
   49.5173  -16.7022  -13.1303 C   0  0  0  0  0  0  0  0  0  0  0  0
   48.8426  -17.8350  -13.5894 C   0  0  0  0  0  0  0  0  0  0  0  0
   49.3383  -18.5404  -14.6845 C   0  0  0  0  0  0  0  0  0  0  0  0
   50.4879  -18.0939  -15.3467 C   0  0  0  0  0  0  0  0  0  0  0  0
   51.1743  -16.9721  -14.8855 C   0  0  0  0  0  0  0  0  0  0  0  0
   50.6967  -16.2857  -13.7629 C   0  0  0  0  0  0  0  0  0  0  0  0
   51.3814  -15.0678  -13.2604 C   0  0  0  0  0  0  0  0  0  0  0  0
   50.6650  -14.0782  -13.0949 O   0  0  0  0  0  0  0  0  0  0  0  0
   52.8063  -15.0696  -12.9982 C   0  0  0  0  0  0  0  0  0  0  0  0
   53.6521  -13.9867  -12.8745 C   0  0  0  0  0  0  0  0  0  0  0  0
   54.9665  -14.2566  -12.6125 N   0  0  0  0  0  0  0  0  0  0  0  0
   55.1311  -15.5494  -12.4957 C   0  0  0  0  0  0  0  0  0  0  0  0
   53.7144  -16.4957  -12.6975 S   0  0  0  0  0  0  0  0  0  0  0  0
   56.3133  -16.1159  -12.2329 N   0  0  0  0  0  0  0  0  0  0  0  0
   53.2976  -12.7040  -12.9947 N   0  0  0  0  0  0  0  0  0  0  0  0
   51.0023  -18.7136  -16.4570 O   0  0  0  0  0  0  0  0  0  0  0  0
   50.0522  -19.6137  -17.0399 C   0  0  0  0  0  0  0  0  0  0  0  0
   49.3965  -20.4685  -15.9681 C   0  0  0  0  0  0  0  0  0  0  0  0
   48.6369  -19.6548  -15.0665 O   0  0  0  0  0  0  0  0  0  0  0  0
   49.1251  -16.1474  -12.2802 H   0  0  0  0  0  0  0  0  0  0  0  0
   47.9355  -18.1688  -13.0925 H   0  0  0  0  0  0  0  0  0  0  0  0
   52.0581  -16.6320  -15.4184 H   0  0  0  0  0  0  0  0  0  0  0  0
   56.4295  -17.1147  -12.1380 H   0  0  0  0  0  0  0  0  0  0  0  0
   57.1291  -15.5292  -12.1140 H   0  0  0  0  0  0  0  0  0  0  0  0
   52.3311  -12.4146  -13.1265 H   0  0  0  0  0  0  0  0  0  0  0  0
   53.9806  -11.9656  -12.8802 H   0  0  0  0  0  0  0  0  0  0  0  0
   49.3105  -19.0262  -17.5952 H   0  0  0  0  0  0  0  0  0  0  0  0
   50.5896  -20.2467  -17.7529 H   0  0  0  0  0  0  0  0  0  0  0  0
   50.1416  -21.0278  -15.3889 H   0  0  0  0  0  0  0  0  0  0  0  0
   48.7093  -21.1875  -16.4249 H   0  0  0  0  0  0  0  0  0  0  0  0
  1  2  4  0
  2  3  4  0
  3  4  4  0
  4  5  4  0
  5  6  4  0
  6  7  1  0
  7  8  2  0
  7  9  1  0
  9 10  4  0
 10 11  4  0
 11 12  4  0
 12 13  4  0
 12 14  1  0
 10 15  1  0
  4 16  1  0
 16 17  1  0
 17 18  1  0
 18 19  1  0
  6  1  4  0
 19  3  1  0
 13  9  4  0
  1 20  1  0
  2 21  1  0
  5 22  1  0
 14 23  1  0
 14 24  1  0
 15 25  1  0
 15 26  1  0
 17 27  1  0
 17 28  1  0
 18 29  1  0
 18 30  1  0
M  END
$$$$
R1_C1v0_2
     RDKit          3D

 30 32  0  0  0  0  0  0  0  0999 V2000
   49.6721  -16.7514  -13.8863 C   0  0  0  0  0  0  0  0  0  0  0  0
   48.8426  -17.8343  -13.5895 C   0  0  0  0  0  0  0  0  0  0  0  0
   48.8575  -18.3884  -12.3106 C   0  0  0  0  0  0  0  0  0  0  0  0
   49.7169  -17.8762  -11.3315 C   0  0  0  0  0  0  0  0  0  0  0  0
   50.5378  -16.7867  -11.6169 C   0  0  0  0  0  0  0  0  0  0  0  0
   50.5298  -16.2370  -12.9042 C   0  0  0  0  0  0  0  0  0  0  0  0
   51.3782  -15.0669  -13.2438 C   0  0  0  0  0  0  0  0  0  0  0  0
   50.7963  -14.1167  -13.7715 O   0  0  0  0  0  0  0  0  0  0  0  0
   52.7975  -15.0670  -12.9530 C   0  0  0  0  0  0  0  0  0  0  0  0
   53.6509  -13.9863  -12.8685 C   0  0  0  0  0  0  0  0  0  0  0  0
   54.9621  -14.2553  -12.5899 N   0  0  0  0  0  0  0  0  0  0  0  0
   55.1312  -15.5495  -12.4962 C   0  0  0  0  0  0  0  0  0  0  0  0
   53.7220  -16.4979  -12.7365 S   0  0  0  0  0  0  0  0  0  0  0  0
   56.3138  -16.1160  -12.2357 N   0  0  0  0  0  0  0  0  0  0  0  0
   53.3042  -12.7060  -13.0289 N   0  0  0  0  0  0  0  0  0  0  0  0
   49.7968  -18.3874  -10.0613 O   0  0  0  0  0  0  0  0  0  0  0  0
   49.1826  -19.6790   -9.9770 C   0  0  0  0  0  0  0  0  0  0  0  0
   47.8368  -19.6812  -10.6827 C   0  0  0  0  0  0  0  0  0  0  0  0
   48.0014  -19.4352  -12.0842 O   0  0  0  0  0  0  0  0  0  0  0  0
   49.6445  -16.3059  -14.8788 H   0  0  0  0  0  0  0  0  0  0  0  0
   48.1741  -18.2337  -14.3477 H   0  0  0  0  0  0  0  0  0  0  0  0
   51.1710  -16.3774  -10.8344 H   0  0  0  0  0  0  0  0  0  0  0  0
   56.4363  -17.1165  -12.1721 H   0  0  0  0  0  0  0  0  0  0  0  0
   57.1272  -15.5286  -12.1045 H   0  0  0  0  0  0  0  0  0  0  0  0
   53.9960  -11.9701  -12.9594 H   0  0  0  0  0  0  0  0  0  0  0  0
   52.3647  -12.4243  -13.2997 H   0  0  0  0  0  0  0  0  0  0  0  0
   49.8658  -20.4184  -10.4129 H   0  0  0  0  0  0  0  0  0  0  0  0
   49.0544  -19.9164   -8.9163 H   0  0  0  0  0  0  0  0  0  0  0  0
   47.1656  -18.9173  -10.2709 H   0  0  0  0  0  0  0  0  0  0  0  0
   47.3526  -20.6565  -10.5719 H   0  0  0  0  0  0  0  0  0  0  0  0
  1  2  4  0
  2  3  4  0
  3  4  4  0
  4  5  4  0
  5  6  4  0
  6  7  1  0
  7  8  2  0
  7  9  1  0
  9 10  4  0
 10 11  4  0
 11 12  4  0
 12 13  4  0
 12 14  1  0
 10 15  1  0
  4 16  1  0
 16 17  1  0
 17 18  1  0
 18 19  1  0
  6  1  4  0
 19  3  1  0
 13  9  4  0
  1 20  1  0
  2 21  1  0
  5 22  1  0
 14 23  1  0
 14 24  1  0
 15 25  1  0
 15 26  1  0
 17 27  1  0
 17 28  1  0
 18 29  1  0
 18 30  1  0
M  END
$$$$
R1_C1v0_3
     RDKit          3D

 30 32  0  0  0  0  0  0  0  0999 V2000
   50.5230  -16.7848  -11.6217 C   0  0  0  0  0  0  0  0  0  0  0  0
   49.7088  -17.8832  -11.3378 C   0  0  0  0  0  0  0  0  0  0  0  0
   48.9051  -18.4293  -12.3377 C   0  0  0  0  0  0  0  0  0  0  0  0
   48.8837  -17.8569  -13.6149 C   0  0  0  0  0  0  0  0  0  0  0  0
   49.7028  -16.7694  -13.9090 C   0  0  0  0  0  0  0  0  0  0  0  0
   50.5364  -16.2442  -12.9151 C   0  0  0  0  0  0  0  0  0  0  0  0
   51.3780  -15.0667  -13.2431 C   0  0  0  0  0  0  0  0  0  0  0  0
   50.7913  -14.1108  -13.7542 O   0  0  0  0  0  0  0  0  0  0  0  0
   52.7978  -15.0670  -12.9541 C   0  0  0  0  0  0  0  0  0  0  0  0
   53.6511  -13.9863  -12.8688 C   0  0  0  0  0  0  0  0  0  0  0  0
   54.9621  -14.2554  -12.5895 N   0  0  0  0  0  0  0  0  0  0  0  0
   55.1314  -15.5495  -12.4970 C   0  0  0  0  0  0  0  0  0  0  0  0
   53.7217  -16.4978  -12.7353 S   0  0  0  0  0  0  0  0  0  0  0  0
   56.3143  -16.1162  -12.2381 N   0  0  0  0  0  0  0  0  0  0  0  0
   53.3039  -12.7060  -13.0284 N   0  0  0  0  0  0  0  0  0  0  0  0
   48.0859  -18.3187  -14.6302 O   0  0  0  0  0  0  0  0  0  0  0  0
   47.0553  -19.1805  -14.1332 C   0  0  0  0  0  0  0  0  0  0  0  0
   47.6279  -20.1853  -13.1472 C   0  0  0  0  0  0  0  0  0  0  0  0
   48.1496  -19.5199  -11.9908 O   0  0  0  0  0  0  0  0  0  0  0  0
   51.1323  -16.3556  -10.8298 H   0  0  0  0  0  0  0  0  0  0  0  0
   49.7020  -18.3153  -10.3404 H   0  0  0  0  0  0  0  0  0  0  0  0
   49.6820  -16.3273  -14.9022 H   0  0  0  0  0  0  0  0  0  0  0  0
   56.4382  -17.1168  -12.1797 H   0  0  0  0  0  0  0  0  0  0  0  0
   57.1283  -15.5287  -12.1102 H   0  0  0  0  0  0  0  0  0  0  0  0
   53.9955  -11.9697  -12.9604 H   0  0  0  0  0  0  0  0  0  0  0  0
   52.3643  -12.4250  -13.3000 H   0  0  0  0  0  0  0  0  0  0  0  0
   46.2761  -18.5621  -13.6704 H   0  0  0  0  0  0  0  0  0  0  0  0
   46.6152  -19.6996  -14.9903 H   0  0  0  0  0  0  0  0  0  0  0  0
   46.8457  -20.8723  -12.8095 H   0  0  0  0  0  0  0  0  0  0  0  0
   48.4322  -20.7784  -13.5999 H   0  0  0  0  0  0  0  0  0  0  0  0
  1  2  4  0
  2  3  4  0
  3  4  4  0
  4  5  4  0
  5  6  4  0
  6  7  1  0
  7  8  2  0
  7  9  1  0
  9 10  4  0
 10 11  4  0
 11 12  4  0
 12 13  4  0
 12 14  1  0
 10 15  1  0
  4 16  1  0
 16 17  1  0
 17 18  1  0
 18 19  1  0
  6  1  4  0
 19  3  1  0
 13  9  4  0
  1 20  1  0
  2 21  1  0
  5 22  1  0
 14 23  1  0
 14 24  1  0
 15 25  1  0
 15 26  1  0
 17 27  1  0
 17 28  1  0
 18 29  1  0
 18 30  1  0
M  END
$$$$
R1_C2v0_0
     RDKit          3D

 25 27  0  0  0  0  0  0  0  0999 V2000
   48.8216  -17.9061  -13.4431 C   0  0  0  0  0  0  0  0  0  0  0  0
   49.5361  -16.7542  -13.0260 C   0  0  0  0  0  0  0  0  0  0  0  0
   50.6859  -16.2827  -13.6996 C   0  0  0  0  0  0  0  0  0  0  0  0
   51.0568  -17.0062  -14.8490 C   0  0  0  0  0  0  0  0  0  0  0  0
   50.3123  -18.1886  -15.2706 C   0  0  0  0  0  0  0  0  0  0  0  0
   49.1863  -18.6657  -14.5711 C   0  0  0  0  0  0  0  0  0  0  0  0
   50.8852  -18.6762  -16.3763 N   0  0  0  0  0  0  0  0  0  0  0  0
   51.9410  -17.8283  -16.6601 O   0  0  0  0  0  0  0  0  0  0  0  0
   52.0435  -16.8062  -15.7336 N   0  0  0  0  0  0  0  0  0  0  0  0
   51.3821  -15.0703  -13.2556 C   0  0  0  0  0  0  0  0  0  0  0  0
   50.6607  -14.0825  -13.0975 O   0  0  0  0  0  0  0  0  0  0  0  0
   52.8063  -15.0699  -12.9987 C   0  0  0  0  0  0  0  0  0  0  0  0
   53.6520  -13.9868  -12.8759 C   0  0  0  0  0  0  0  0  0  0  0  0
   54.9655  -14.2562  -12.6089 N   0  0  0  0  0  0  0  0  0  0  0  0
   55.1318  -15.5495  -12.4994 C   0  0  0  0  0  0  0  0  0  0  0  0
   53.7142  -16.4959  -12.6954 S   0  0  0  0  0  0  0  0  0  0  0  0
   56.3154  -16.1158  -12.2428 N   0  0  0  0  0  0  0  0  0  0  0  0
   53.2982  -12.7038  -12.9948 N   0  0  0  0  0  0  0  0  0  0  0  0
   47.9462  -18.2123  -12.8682 H   0  0  0  0  0  0  0  0  0  0  0  0
   49.1798  -16.2089  -12.1500 H   0  0  0  0  0  0  0  0  0  0  0  0
   48.6361  -19.5424  -14.8895 H   0  0  0  0  0  0  0  0  0  0  0  0
   57.1330  -15.5290  -12.1366 H   0  0  0  0  0  0  0  0  0  0  0  0
   56.4369  -17.1157  -12.1705 H   0  0  0  0  0  0  0  0  0  0  0  0
   53.9854  -11.9676  -12.8903 H   0  0  0  0  0  0  0  0  0  0  0  0
   52.3357  -12.4112  -13.1438 H   0  0  0  0  0  0  0  0  0  0  0  0
  1  2  4  0
  2  3  4  0
  3  4  4  0
  4  5  4  0
  5  6  4  0
  5  7  4  0
  7  8  4  0
  8  9  4  0
  3 10  1  0
 10 11  2  0
 10 12  1  0
 12 13  4  0
 13 14  4  0
 14 15  4  0
 15 16  4  0
 15 17  1  0
 13 18  1  0
  6  1  4  0
  9  4  4  0
 16 12  4  0
  1 19  1  0
  2 20  1  0
  6 21  1  0
 17 22  1  0
 17 23  1  0
 18 24  1  0
 18 25  1  0
M  END
$$$$
R1_C2v0_1
     RDKit          3D

 25 27  0  0  0  0  0  0  0  0999 V2000
   48.8216  -17.9061  -13.4431 C   0  0  0  0  0  0  0  0  0  0  0  0
   49.5361  -16.7542  -13.0260 C   0  0  0  0  0  0  0  0  0  0  0  0
   50.6859  -16.2827  -13.6996 C   0  0  0  0  0  0  0  0  0  0  0  0
   51.0568  -17.0062  -14.8490 C   0  0  0  0  0  0  0  0  0  0  0  0
   50.3123  -18.1886  -15.2706 C   0  0  0  0  0  0  0  0  0  0  0  0
   49.1863  -18.6657  -14.5711 C   0  0  0  0  0  0  0  0  0  0  0  0
   50.8852  -18.6762  -16.3763 N   0  0  0  0  0  0  0  0  0  0  0  0
   51.9410  -17.8283  -16.6601 O   0  0  0  0  0  0  0  0  0  0  0  0
   52.0435  -16.8062  -15.7336 N   0  0  0  0  0  0  0  0  0  0  0  0
   51.3821  -15.0703  -13.2556 C   0  0  0  0  0  0  0  0  0  0  0  0
   50.6607  -14.0825  -13.0975 O   0  0  0  0  0  0  0  0  0  0  0  0
   52.8063  -15.0699  -12.9987 C   0  0  0  0  0  0  0  0  0  0  0  0
   53.6520  -13.9868  -12.8759 C   0  0  0  0  0  0  0  0  0  0  0  0
   54.9655  -14.2562  -12.6089 N   0  0  0  0  0  0  0  0  0  0  0  0
   55.1318  -15.5495  -12.4994 C   0  0  0  0  0  0  0  0  0  0  0  0
   53.7142  -16.4959  -12.6954 S   0  0  0  0  0  0  0  0  0  0  0  0
   56.3154  -16.1158  -12.2428 N   0  0  0  0  0  0  0  0  0  0  0  0
   53.2982  -12.7038  -12.9948 N   0  0  0  0  0  0  0  0  0  0  0  0
   47.9462  -18.2123  -12.8682 H   0  0  0  0  0  0  0  0  0  0  0  0
   49.1798  -16.2089  -12.1500 H   0  0  0  0  0  0  0  0  0  0  0  0
   48.6361  -19.5424  -14.8895 H   0  0  0  0  0  0  0  0  0  0  0  0
   56.4369  -17.1157  -12.1705 H   0  0  0  0  0  0  0  0  0  0  0  0
   57.1330  -15.5290  -12.1366 H   0  0  0  0  0  0  0  0  0  0  0  0
   52.3357  -12.4112  -13.1438 H   0  0  0  0  0  0  0  0  0  0  0  0
   53.9854  -11.9676  -12.8903 H   0  0  0  0  0  0  0  0  0  0  0  0
  1  2  4  0
  2  3  4  0
  3  4  4  0
  4  5  4  0
  5  6  4  0
  5  7  4  0
  7  8  4  0
  8  9  4  0
  3 10  1  0
 10 11  2  0
 10 12  1  0
 12 13  4  0
 13 14  4  0
 14 15  4  0
 15 16  4  0
 15 17  1  0
 13 18  1  0
  6  1  4  0
  9  4  4  0
 16 12  4  0
  1 19  1  0
  2 20  1  0
  6 21  1  0
 17 22  1  0
 17 23  1  0
 18 24  1  0
 18 25  1  0
M  END
$$$$
R1_C2v0_2
     RDKit          3D

 25 27  0  0  0  0  0  0  0  0999 V2000
   48.8761  -17.9219  -13.7234 C   0  0  0  0  0  0  0  0  0  0  0  0
   49.7187  -16.8071  -13.9657 C   0  0  0  0  0  0  0  0  0  0  0  0
   50.5435  -16.2414  -12.9669 C   0  0  0  0  0  0  0  0  0  0  0  0
   50.4432  -16.8282  -11.6911 C   0  0  0  0  0  0  0  0  0  0  0  0
   49.5704  -17.9734  -11.4525 C   0  0  0  0  0  0  0  0  0  0  0  0
   48.7773  -18.5471  -12.4657 C   0  0  0  0  0  0  0  0  0  0  0  0
   49.6788  -18.3261  -10.1670 N   0  0  0  0  0  0  0  0  0  0  0  0
   50.5699  -17.4305   -9.6032 O   0  0  0  0  0  0  0  0  0  0  0  0
   51.0323  -16.5128  -10.5293 N   0  0  0  0  0  0  0  0  0  0  0  0
   51.3805  -15.0698  -13.2474 C   0  0  0  0  0  0  0  0  0  0  0  0
   50.7912  -14.1204  -13.7694 O   0  0  0  0  0  0  0  0  0  0  0  0
   52.7973  -15.0673  -12.9525 C   0  0  0  0  0  0  0  0  0  0  0  0
   53.6503  -13.9863  -12.8672 C   0  0  0  0  0  0  0  0  0  0  0  0
   54.9625  -14.2554  -12.5937 N   0  0  0  0  0  0  0  0  0  0  0  0
   55.1304  -15.5491  -12.4924 C   0  0  0  0  0  0  0  0  0  0  0  0
   53.7226  -16.4983  -12.7386 S   0  0  0  0  0  0  0  0  0  0  0  0
   56.3121  -16.1148  -12.2256 N   0  0  0  0  0  0  0  0  0  0  0  0
   53.3048  -12.7057  -13.0287 N   0  0  0  0  0  0  0  0  0  0  0  0
   48.2724  -18.3069  -14.5468 H   0  0  0  0  0  0  0  0  0  0  0  0
   49.7268  -16.3676  -14.9649 H   0  0  0  0  0  0  0  0  0  0  0  0
   48.1296  -19.3955  -12.2828 H   0  0  0  0  0  0  0  0  0  0  0  0
   56.4307  -17.1139  -12.1386 H   0  0  0  0  0  0  0  0  0  0  0  0
   57.1223  -15.5260  -12.0818 H   0  0  0  0  0  0  0  0  0  0  0  0
   52.3627  -12.4190  -13.2824 H   0  0  0  0  0  0  0  0  0  0  0  0
   53.9966  -11.9708  -12.9482 H   0  0  0  0  0  0  0  0  0  0  0  0
  1  2  4  0
  2  3  4  0
  3  4  4  0
  4  5  4  0
  5  6  4  0
  5  7  4  0
  7  8  4  0
  8  9  4  0
  3 10  1  0
 10 11  2  0
 10 12  1  0
 12 13  4  0
 13 14  4  0
 14 15  4  0
 15 16  4  0
 15 17  1  0
 13 18  1  0
  6  1  4  0
  9  4  4  0
 16 12  4  0
  1 19  1  0
  2 20  1  0
  6 21  1  0
 17 22  1  0
 17 23  1  0
 18 24  1  0
 18 25  1  0
M  END
$$$$
R1_C2v0_3
     RDKit          3D

 25 27  0  0  0  0  0  0  0  0999 V2000
   48.8761  -17.9219  -13.7234 C   0  0  0  0  0  0  0  0  0  0  0  0
   49.7187  -16.8071  -13.9657 C   0  0  0  0  0  0  0  0  0  0  0  0
   50.5435  -16.2414  -12.9669 C   0  0  0  0  0  0  0  0  0  0  0  0
   50.4432  -16.8282  -11.6911 C   0  0  0  0  0  0  0  0  0  0  0  0
   49.5704  -17.9734  -11.4525 C   0  0  0  0  0  0  0  0  0  0  0  0
   48.7772  -18.5471  -12.4657 C   0  0  0  0  0  0  0  0  0  0  0  0
   49.6788  -18.3261  -10.1670 N   0  0  0  0  0  0  0  0  0  0  0  0
   50.5699  -17.4305   -9.6032 O   0  0  0  0  0  0  0  0  0  0  0  0
   51.0322  -16.5128  -10.5293 N   0  0  0  0  0  0  0  0  0  0  0  0
   51.3805  -15.0698  -13.2474 C   0  0  0  0  0  0  0  0  0  0  0  0
   50.7912  -14.1204  -13.7694 O   0  0  0  0  0  0  0  0  0  0  0  0
   52.7973  -15.0673  -12.9525 C   0  0  0  0  0  0  0  0  0  0  0  0
   53.6503  -13.9863  -12.8672 C   0  0  0  0  0  0  0  0  0  0  0  0
   54.9625  -14.2554  -12.5937 N   0  0  0  0  0  0  0  0  0  0  0  0
   55.1304  -15.5491  -12.4924 C   0  0  0  0  0  0  0  0  0  0  0  0
   53.7226  -16.4983  -12.7386 S   0  0  0  0  0  0  0  0  0  0  0  0
   56.3121  -16.1148  -12.2256 N   0  0  0  0  0  0  0  0  0  0  0  0
   53.3048  -12.7057  -13.0287 N   0  0  0  0  0  0  0  0  0  0  0  0
   48.2724  -18.3069  -14.5468 H   0  0  0  0  0  0  0  0  0  0  0  0
   49.7268  -16.3676  -14.9649 H   0  0  0  0  0  0  0  0  0  0  0  0
   48.1296  -19.3955  -12.2828 H   0  0  0  0  0  0  0  0  0  0  0  0
   56.4307  -17.1139  -12.1386 H   0  0  0  0  0  0  0  0  0  0  0  0
   57.1223  -15.5260  -12.0818 H   0  0  0  0  0  0  0  0  0  0  0  0
   53.9966  -11.9708  -12.9482 H   0  0  0  0  0  0  0  0  0  0  0  0
   52.3627  -12.4190  -13.2824 H   0  0  0  0  0  0  0  0  0  0  0  0
  1  2  4  0
  2  3  4  0
  3  4  4  0
  4  5  4  0
  5  6  4  0
  5  7  4  0
  7  8  4  0
  8  9  4  0
  3 10  1  0
 10 11  2  0
 10 12  1  0
 12 13  4  0
 13 14  4  0
 14 15  4  0
 15 16  4  0
 15 17  1  0
 13 18  1  0
  6  1  4  0
  9  4  4  0
 16 12  4  0
  1 19  1  0
  2 20  1  0
  6 21  1  0
 17 22  1  0
 17 23  1  0
 18 24  1  0
 18 25  1  0
M  END
$$$$
R1_C3v0_0
     RDKit          3D

 26 27  0  0  0  0  0  0  0  0999 V2000
   49.3849  -18.0598  -14.3299 C   0  0  0  0  0  0  0  0  0  0  0  0
   49.1194  -18.7034  -13.1200 C   0  0  0  0  0  0  0  0  0  0  0  0
   49.5712  -18.1526  -11.9198 C   0  0  0  0  0  0  0  0  0  0  0  0
   50.2982  -16.9526  -11.9411 C   0  0  0  0  0  0  0  0  0  0  0  0
   50.5921  -16.3155  -13.1508 C   0  0  0  0  0  0  0  0  0  0  0  0
   50.1149  -16.8686  -14.3484 C   0  0  0  0  0  0  0  0  0  0  0  0
   51.3804  -15.0682  -13.2552 C   0  0  0  0  0  0  0  0  0  0  0  0
   50.7548  -14.0820  -13.6471 O   0  0  0  0  0  0  0  0  0  0  0  0
   52.7996  -15.0673  -12.9642 C   0  0  0  0  0  0  0  0  0  0  0  0
   53.6511  -13.9860  -12.8699 C   0  0  0  0  0  0  0  0  0  0  0  0
   54.9637  -14.2564  -12.6002 N   0  0  0  0  0  0  0  0  0  0  0  0
   55.1310  -15.5493  -12.4928 C   0  0  0  0  0  0  0  0  0  0  0  0
   53.7204  -16.4975  -12.7272 S   0  0  0  0  0  0  0  0  0  0  0  0
   56.3121  -16.1149  -12.2242 N   0  0  0  0  0  0  0  0  0  0  0  0
   53.3022  -12.7054  -13.0188 N   0  0  0  0  0  0  0  0  0  0  0  0
   50.7151  -16.3855  -10.6695 N   0  0  0  0  0  4  0  0  0  0  0  0
   51.1623  -17.1714   -9.8236 O   0  0  0  0  0  0  0  0  0  0  0  0
   50.5828  -15.1669  -10.5139 O   0  0  0  0  0  1  0  0  0  0  0  0
   49.0199  -18.4861  -15.2627 H   0  0  0  0  0  0  0  0  0  0  0  0
   48.5501  -19.6312  -13.1128 H   0  0  0  0  0  0  0  0  0  0  0  0
   49.3450  -18.6555  -10.9810 H   0  0  0  0  0  0  0  0  0  0  0  0
   50.3108  -16.3731  -15.2984 H   0  0  0  0  0  0  0  0  0  0  0  0
   56.4313  -17.1131  -12.1276 H   0  0  0  0  0  0  0  0  0  0  0  0
   57.1224  -15.5252  -12.0829 H   0  0  0  0  0  0  0  0  0  0  0  0
   52.3483  -12.4175  -13.2253 H   0  0  0  0  0  0  0  0  0  0  0  0
   53.9871  -11.9666  -12.9197 H   0  0  0  0  0  0  0  0  0  0  0  0
  1  2  4  0
  2  3  4  0
  3  4  4  0
  4  5  4  0
  5  6  4  0
  5  7  1  0
  7  8  2  0
  7  9  1  0
  9 10  4  0
 10 11  4  0
 11 12  4  0
 12 13  4  0
 12 14  1  0
 10 15  1  0
  4 16  1  0
 16 17  2  0
 16 18  1  0
  6  1  4  0
 13  9  4  0
  1 19  1  0
  2 20  1  0
  3 21  1  0
  6 22  1  0
 14 23  1  0
 14 24  1  0
 15 25  1  0
 15 26  1  0
M  CHG  2  16   1  18  -1
M  END
$$$$
R1_C3v0_1
     RDKit          3D

 26 27  0  0  0  0  0  0  0  0999 V2000
   49.5560  -17.8686  -11.4978 C   0  0  0  0  0  0  0  0  0  0  0  0
   48.8870  -18.4798  -12.5611 C   0  0  0  0  0  0  0  0  0  0  0  0
   49.0475  -17.9974  -13.8608 C   0  0  0  0  0  0  0  0  0  0  0  0
   49.8900  -16.8999  -14.0847 C   0  0  0  0  0  0  0  0  0  0  0  0
   50.5714  -16.2877  -13.0298 C   0  0  0  0  0  0  0  0  0  0  0  0
   50.3895  -16.7697  -11.7254 C   0  0  0  0  0  0  0  0  0  0  0  0
   51.3797  -15.0692  -13.2374 C   0  0  0  0  0  0  0  0  0  0  0  0
   50.7426  -14.0851  -13.6167 O   0  0  0  0  0  0  0  0  0  0  0  0
   52.7996  -15.0672  -12.9603 C   0  0  0  0  0  0  0  0  0  0  0  0
   53.6513  -13.9861  -12.8705 C   0  0  0  0  0  0  0  0  0  0  0  0
   54.9620  -14.2556  -12.5907 N   0  0  0  0  0  0  0  0  0  0  0  0
   55.1321  -15.5497  -12.5003 C   0  0  0  0  0  0  0  0  0  0  0  0
   53.7201  -16.4978  -12.7276 S   0  0  0  0  0  0  0  0  0  0  0  0
   56.3163  -16.1161  -12.2468 N   0  0  0  0  0  0  0  0  0  0  0  0
   53.3029  -12.7055  -13.0236 N   0  0  0  0  0  0  0  0  0  0  0  0
   50.0779  -16.4445  -15.4502 N   0  0  0  0  0  4  0  0  0  0  0  0
   49.0627  -16.3040  -16.1447 O   0  0  0  0  0  0  0  0  0  0  0  0
   51.2439  -16.2923  -15.8374 O   0  0  0  0  0  1  0  0  0  0  0  0
   49.4160  -18.2420  -10.4847 H   0  0  0  0  0  0  0  0  0  0  0  0
   48.2341  -19.3305  -12.3738 H   0  0  0  0  0  0  0  0  0  0  0  0
   48.5210  -18.4773  -14.6838 H   0  0  0  0  0  0  0  0  0  0  0  0
   50.8762  -16.2856  -10.8805 H   0  0  0  0  0  0  0  0  0  0  0  0
   57.1319  -15.5280  -12.1317 H   0  0  0  0  0  0  0  0  0  0  0  0
   56.4443  -17.1167  -12.2008 H   0  0  0  0  0  0  0  0  0  0  0  0
   52.3631  -12.4213  -13.2906 H   0  0  0  0  0  0  0  0  0  0  0  0
   53.9965  -11.9705  -12.9608 H   0  0  0  0  0  0  0  0  0  0  0  0
  1  2  4  0
  2  3  4  0
  3  4  4  0
  4  5  4  0
  5  6  4  0
  5  7  1  0
  7  8  2  0
  7  9  1  0
  9 10  4  0
 10 11  4  0
 11 12  4  0
 12 13  4  0
 12 14  1  0
 10 15  1  0
  4 16  1  0
 16 17  2  0
 16 18  1  0
  6  1  4  0
 13  9  4  0
  1 19  1  0
  2 20  1  0
  3 21  1  0
  6 22  1  0
 14 23  1  0
 14 24  1  0
 15 25  1  0
 15 26  1  0
M  CHG  2  16   1  18  -1
M  END
$$$$
R1_C3v0_2
     RDKit          3D

 26 27  0  0  0  0  0  0  0  0999 V2000
   49.5560  -17.8686  -11.4978 C   0  0  0  0  0  0  0  0  0  0  0  0
   48.8870  -18.4798  -12.5611 C   0  0  0  0  0  0  0  0  0  0  0  0
   49.0475  -17.9974  -13.8608 C   0  0  0  0  0  0  0  0  0  0  0  0
   49.8900  -16.8999  -14.0847 C   0  0  0  0  0  0  0  0  0  0  0  0
   50.5714  -16.2877  -13.0298 C   0  0  0  0  0  0  0  0  0  0  0  0
   50.3895  -16.7697  -11.7254 C   0  0  0  0  0  0  0  0  0  0  0  0
   51.3797  -15.0692  -13.2374 C   0  0  0  0  0  0  0  0  0  0  0  0
   50.7426  -14.0851  -13.6167 O   0  0  0  0  0  0  0  0  0  0  0  0
   52.7996  -15.0672  -12.9603 C   0  0  0  0  0  0  0  0  0  0  0  0
   53.6513  -13.9861  -12.8705 C   0  0  0  0  0  0  0  0  0  0  0  0
   54.9620  -14.2556  -12.5907 N   0  0  0  0  0  0  0  0  0  0  0  0
   55.1321  -15.5497  -12.5003 C   0  0  0  0  0  0  0  0  0  0  0  0
   53.7201  -16.4978  -12.7276 S   0  0  0  0  0  0  0  0  0  0  0  0
   56.3163  -16.1161  -12.2468 N   0  0  0  0  0  0  0  0  0  0  0  0
   53.3029  -12.7055  -13.0236 N   0  0  0  0  0  0  0  0  0  0  0  0
   50.0779  -16.4445  -15.4502 N   0  0  0  0  0  4  0  0  0  0  0  0
   49.0627  -16.3040  -16.1447 O   0  0  0  0  0  0  0  0  0  0  0  0
   51.2439  -16.2923  -15.8374 O   0  0  0  0  0  1  0  0  0  0  0  0
   49.4160  -18.2420  -10.4847 H   0  0  0  0  0  0  0  0  0  0  0  0
   48.2341  -19.3305  -12.3738 H   0  0  0  0  0  0  0  0  0  0  0  0
   48.5210  -18.4773  -14.6838 H   0  0  0  0  0  0  0  0  0  0  0  0
   50.8762  -16.2856  -10.8805 H   0  0  0  0  0  0  0  0  0  0  0  0
   57.1319  -15.5280  -12.1317 H   0  0  0  0  0  0  0  0  0  0  0  0
   56.4443  -17.1167  -12.2008 H   0  0  0  0  0  0  0  0  0  0  0  0
   53.9965  -11.9705  -12.9608 H   0  0  0  0  0  0  0  0  0  0  0  0
   52.3631  -12.4213  -13.2906 H   0  0  0  0  0  0  0  0  0  0  0  0
  1  2  4  0
  2  3  4  0
  3  4  4  0
  4  5  4  0
  5  6  4  0
  5  7  1  0
  7  8  2  0
  7  9  1  0
  9 10  4  0
 10 11  4  0
 11 12  4  0
 12 13  4  0
 12 14  1  0
 10 15  1  0
  4 16  1  0
 16 17  2  0
 16 18  1  0
  6  1  4  0
 13  9  4  0
  1 19  1  0
  2 20  1  0
  3 21  1  0
  6 22  1  0
 14 23  1  0
 14 24  1  0
 15 25  1  0
 15 26  1  0
M  CHG  2  16   1  18  -1
M  END
$$$$
R1_C3v0_3
     RDKit          3D

 26 27  0  0  0  0  0  0  0  0999 V2000
   49.0640  -17.9662  -12.6731 C   0  0  0  0  0  0  0  0  0  0  0  0
   49.2545  -18.7429  -13.8173 C   0  0  0  0  0  0  0  0  0  0  0  0
   50.1321  -18.3162  -14.8152 C   0  0  0  0  0  0  0  0  0  0  0  0
   50.8241  -17.1060  -14.6552 C   0  0  0  0  0  0  0  0  0  0  0  0
   50.6598  -16.3353  -13.5000 C   0  0  0  0  0  0  0  0  0  0  0  0
   49.7594  -16.7649  -12.5137 C   0  0  0  0  0  0  0  0  0  0  0  0
   51.3785  -15.0677  -13.2458 C   0  0  0  0  0  0  0  0  0  0  0  0
   50.6730  -14.0581  -13.2245 O   0  0  0  0  0  0  0  0  0  0  0  0
   52.8037  -15.0686  -12.9857 C   0  0  0  0  0  0  0  0  0  0  0  0
   53.6517  -13.9862  -12.8731 C   0  0  0  0  0  0  0  0  0  0  0  0
   54.9644  -14.2565  -12.6036 N   0  0  0  0  0  0  0  0  0  0  0  0
   55.1324  -15.5497  -12.4998 C   0  0  0  0  0  0  0  0  0  0  0  0
   53.7163  -16.4963  -12.7060 S   0  0  0  0  0  0  0  0  0  0  0  0
   56.3164  -16.1161  -12.2462 N   0  0  0  0  0  0  0  0  0  0  0  0
   53.2995  -12.7047  -13.0048 N   0  0  0  0  0  0  0  0  0  0  0  0
   51.6962  -16.6718  -15.7337 N   0  0  0  0  0  4  0  0  0  0  0  0
   51.6570  -15.4803  -16.0587 O   0  0  0  0  0  0  0  0  0  0  0  0
   52.4096  -17.5353  -16.2615 O   0  0  0  0  0  1  0  0  0  0  0  0
   48.3689  -18.2962  -11.9029 H   0  0  0  0  0  0  0  0  0  0  0  0
   48.7094  -19.6777  -13.9351 H   0  0  0  0  0  0  0  0  0  0  0  0
   50.2612  -18.9229  -15.7101 H   0  0  0  0  0  0  0  0  0  0  0  0
   49.5979  -16.1651  -11.6189 H   0  0  0  0  0  0  0  0  0  0  0  0
   56.4419  -17.1162  -12.1825 H   0  0  0  0  0  0  0  0  0  0  0  0
   57.1333  -15.5283  -12.1389 H   0  0  0  0  0  0  0  0  0  0  0  0
   53.9875  -11.9667  -12.9214 H   0  0  0  0  0  0  0  0  0  0  0  0
   52.3436  -12.4161  -13.2009 H   0  0  0  0  0  0  0  0  0  0  0  0
  1  2  4  0
  2  3  4  0
  3  4  4  0
  4  5  4  0
  5  6  4  0
  5  7  1  0
  7  8  2  0
  7  9  1  0
  9 10  4  0
 10 11  4  0
 11 12  4  0
 12 13  4  0
 12 14  1  0
 10 15  1  0
  4 16  1  0
 16 17  2  0
 16 18  1  0
  6  1  4  0
 13  9  4  0
  1 19  1  0
  2 20  1  0
  3 21  1  0
  6 22  1  0
 14 23  1  0
 14 24  1  0
 15 25  1  0
 15 26  1  0
M  CHG  2  16   1  18  -1
M  END
$$$$
R1_C3v0_4
     RDKit          3D

 26 27  0  0  0  0  0  0  0  0999 V2000
   49.3849  -18.0598  -14.3299 C   0  0  0  0  0  0  0  0  0  0  0  0
   49.1194  -18.7034  -13.1200 C   0  0  0  0  0  0  0  0  0  0  0  0
   49.5712  -18.1526  -11.9198 C   0  0  0  0  0  0  0  0  0  0  0  0
   50.2982  -16.9526  -11.9411 C   0  0  0  0  0  0  0  0  0  0  0  0
   50.5921  -16.3155  -13.1508 C   0  0  0  0  0  0  0  0  0  0  0  0
   50.1149  -16.8686  -14.3484 C   0  0  0  0  0  0  0  0  0  0  0  0
   51.3804  -15.0682  -13.2552 C   0  0  0  0  0  0  0  0  0  0  0  0
   50.7548  -14.0820  -13.6471 O   0  0  0  0  0  0  0  0  0  0  0  0
   52.7996  -15.0673  -12.9642 C   0  0  0  0  0  0  0  0  0  0  0  0
   53.6511  -13.9860  -12.8699 C   0  0  0  0  0  0  0  0  0  0  0  0
   54.9637  -14.2564  -12.6002 N   0  0  0  0  0  0  0  0  0  0  0  0
   55.1310  -15.5493  -12.4928 C   0  0  0  0  0  0  0  0  0  0  0  0
   53.7204  -16.4975  -12.7272 S   0  0  0  0  0  0  0  0  0  0  0  0
   56.3121  -16.1149  -12.2242 N   0  0  0  0  0  0  0  0  0  0  0  0
   53.3022  -12.7054  -13.0188 N   0  0  0  0  0  0  0  0  0  0  0  0
   50.7151  -16.3855  -10.6695 N   0  0  0  0  0  4  0  0  0  0  0  0
   51.1623  -17.1714   -9.8236 O   0  0  0  0  0  0  0  0  0  0  0  0
   50.5828  -15.1669  -10.5139 O   0  0  0  0  0  1  0  0  0  0  0  0
   49.0199  -18.4862  -15.2627 H   0  0  0  0  0  0  0  0  0  0  0  0
   48.5501  -19.6312  -13.1128 H   0  0  0  0  0  0  0  0  0  0  0  0
   49.3450  -18.6555  -10.9810 H   0  0  0  0  0  0  0  0  0  0  0  0
   50.3108  -16.3731  -15.2984 H   0  0  0  0  0  0  0  0  0  0  0  0
   57.1224  -15.5252  -12.0829 H   0  0  0  0  0  0  0  0  0  0  0  0
   56.4313  -17.1131  -12.1276 H   0  0  0  0  0  0  0  0  0  0  0  0
   53.9871  -11.9666  -12.9197 H   0  0  0  0  0  0  0  0  0  0  0  0
   52.3483  -12.4175  -13.2253 H   0  0  0  0  0  0  0  0  0  0  0  0
  1  2  4  0
  2  3  4  0
  3  4  4  0
  4  5  4  0
  5  6  4  0
  5  7  1  0
  7  8  2  0
  7  9  1  0
  9 10  4  0
 10 11  4  0
 11 12  4  0
 12 13  4  0
 12 14  1  0
 10 15  1  0
  4 16  1  0
 16 17  2  0
 16 18  1  0
  6  1  4  0
 13  9  4  0
  1 19  1  0
  2 20  1  0
  3 21  1  0
  6 22  1  0
 14 23  1  0
 14 24  1  0
 15 25  1  0
 15 26  1  0
M  CHG  2  16   1  18  -1
M  END
$$$$
R1_C3v0_5
     RDKit          3D

 26 27  0  0  0  0  0  0  0  0999 V2000
   50.2812  -18.0802  -15.2407 C   0  0  0  0  0  0  0  0  0  0  0  0
   49.2516  -18.5862  -14.4432 C   0  0  0  0  0  0  0  0  0  0  0  0
   48.9269  -17.9622  -13.2380 C   0  0  0  0  0  0  0  0  0  0  0  0
   49.6483  -16.8294  -12.8371 C   0  0  0  0  0  0  0  0  0  0  0  0
   50.6862  -16.3212  -13.6223 C   0  0  0  0  0  0  0  0  0  0  0  0
   50.9929  -16.9457  -14.8399 C   0  0  0  0  0  0  0  0  0  0  0  0
   51.3845  -15.0706  -13.2624 C   0  0  0  0  0  0  0  0  0  0  0  0
   50.6729  -14.0648  -13.2569 O   0  0  0  0  0  0  0  0  0  0  0  0
   52.8052  -15.0689  -12.9893 C   0  0  0  0  0  0  0  0  0  0  0  0
   53.6517  -13.9862  -12.8724 C   0  0  0  0  0  0  0  0  0  0  0  0
   54.9663  -14.2568  -12.6131 N   0  0  0  0  0  0  0  0  0  0  0  0
   55.1306  -15.5493  -12.4925 C   0  0  0  0  0  0  0  0  0  0  0  0
   53.7158  -16.4966  -12.7056 S   0  0  0  0  0  0  0  0  0  0  0  0
   56.3118  -16.1148  -12.2237 N   0  0  0  0  0  0  0  0  0  0  0  0
   53.2984  -12.7042  -13.0001 N   0  0  0  0  0  0  0  0  0  0  0  0
   49.3238  -16.2245  -11.5580 N   0  0  0  0  0  4  0  0  0  0  0  0
   48.1262  -16.0308  -11.3111 O   0  0  0  0  0  0  0  0  0  0  0  0
   50.2648  -16.0066  -10.7836 O   0  0  0  0  0  1  0  0  0  0  0  0
   50.5206  -18.5643  -16.1860 H   0  0  0  0  0  0  0  0  0  0  0  0
   48.6977  -19.4657  -14.7666 H   0  0  0  0  0  0  0  0  0  0  0  0
   48.1218  -18.3608  -12.6232 H   0  0  0  0  0  0  0  0  0  0  0  0
   51.7693  -16.5462  -15.4901 H   0  0  0  0  0  0  0  0  0  0  0  0
   56.4267  -17.1116  -12.1097 H   0  0  0  0  0  0  0  0  0  0  0  0
   57.1238  -15.5256  -12.0900 H   0  0  0  0  0  0  0  0  0  0  0  0
   52.3329  -12.4125  -13.1348 H   0  0  0  0  0  0  0  0  0  0  0  0
   53.9808  -11.9659  -12.8796 H   0  0  0  0  0  0  0  0  0  0  0  0
  1  2  4  0
  2  3  4  0
  3  4  4  0
  4  5  4  0
  5  6  4  0
  5  7  1  0
  7  8  2  0
  7  9  1  0
  9 10  4  0
 10 11  4  0
 11 12  4  0
 12 13  4  0
 12 14  1  0
 10 15  1  0
  4 16  1  0
 16 17  2  0
 16 18  1  0
  6  1  4  0
 13  9  4  0
  1 19  1  0
  2 20  1  0
  3 21  1  0
  6 22  1  0
 14 23  1  0
 14 24  1  0
 15 25  1  0
 15 26  1  0
M  CHG  2  16   1  18  -1
M  END
$$$$
R1_C4v0_0
     RDKit          3D

 32 33  0  0  0  0  0  0  0  0999 V2000
   47.5725  -20.1226  -14.7088 C   0  0  0  0  0  0  0  0  0  0  0  0
   48.7739  -19.6533  -15.3036 O   0  0  0  0  0  0  0  0  0  0  0  0
   49.3593  -18.5347  -14.7642 C   0  0  0  0  0  0  0  0  0  0  0  0
   48.8657  -17.8444  -13.6511 C   0  0  0  0  0  0  0  0  0  0  0  0
   49.5333  -16.7171  -13.1686 C   0  0  0  0  0  0  0  0  0  0  0  0
   50.7065  -16.2824  -13.7898 C   0  0  0  0  0  0  0  0  0  0  0  0
   51.1952  -16.9480  -14.9210 C   0  0  0  0  0  0  0  0  0  0  0  0
   50.5323  -18.0806  -15.4059 C   0  0  0  0  0  0  0  0  0  0  0  0
   50.9404  -18.8077  -16.4971 O   0  0  0  0  0  0  0  0  0  0  0  0
   52.1278  -18.3997  -17.1615 C   0  0  0  0  0  0  0  0  0  0  0  0
   51.3822  -15.0692  -13.2628 C   0  0  0  0  0  0  0  0  0  0  0  0
   50.6612  -14.0856  -13.0840 O   0  0  0  0  0  0  0  0  0  0  0  0
   52.8066  -15.0694  -12.9983 C   0  0  0  0  0  0  0  0  0  0  0  0
   53.6519  -13.9865  -12.8740 C   0  0  0  0  0  0  0  0  0  0  0  0
   54.9665  -14.2569  -12.6138 N   0  0  0  0  0  0  0  0  0  0  0  0
   55.1310  -15.5495  -12.4945 C   0  0  0  0  0  0  0  0  0  0  0  0
   53.7146  -16.4958  -12.6978 S   0  0  0  0  0  0  0  0  0  0  0  0
   56.3127  -16.1158  -12.2298 N   0  0  0  0  0  0  0  0  0  0  0  0
   53.2974  -12.7039  -12.9945 N   0  0  0  0  0  0  0  0  0  0  0  0
   46.7783  -19.3718  -14.7759 H   0  0  0  0  0  0  0  0  0  0  0  0
   47.7399  -20.4316  -13.6718 H   0  0  0  0  0  0  0  0  0  0  0  0
   47.2442  -21.0038  -15.2686 H   0  0  0  0  0  0  0  0  0  0  0  0
   47.9614  -18.1556  -13.1387 H   0  0  0  0  0  0  0  0  0  0  0  0
   49.1355  -16.1797  -12.3099 H   0  0  0  0  0  0  0  0  0  0  0  0
   52.0804  -16.5622  -15.4149 H   0  0  0  0  0  0  0  0  0  0  0  0
   52.9924  -18.4471  -16.4912 H   0  0  0  0  0  0  0  0  0  0  0  0
   52.3072  -19.0976  -17.9850 H   0  0  0  0  0  0  0  0  0  0  0  0
   52.0144  -17.3995  -17.5923 H   0  0  0  0  0  0  0  0  0  0  0  0
   57.1278  -15.5289  -12.1061 H   0  0  0  0  0  0  0  0  0  0  0  0
   56.4279  -17.1139  -12.1254 H   0  0  0  0  0  0  0  0  0  0  0  0
   52.3306  -12.4132  -13.1207 H   0  0  0  0  0  0  0  0  0  0  0  0
   53.9803  -11.9656  -12.8772 H   0  0  0  0  0  0  0  0  0  0  0  0
  1  2  1  0
  2  3  1  0
  3  4  4  0
  4  5  4  0
  5  6  4  0
  6  7  4  0
  7  8  4  0
  8  9  1  0
  9 10  1  0
  6 11  1  0
 11 12  2  0
 11 13  1  0
 13 14  4  0
 14 15  4  0
 15 16  4  0
 16 17  4  0
 16 18  1  0
 14 19  1  0
  8  3  4  0
 17 13  4  0
  1 20  1  0
  1 21  1  0
  1 22  1  0
  4 23  1  0
  5 24  1  0
  7 25  1  0
 10 26  1  0
 10 27  1  0
 10 28  1  0
 18 29  1  0
 18 30  1  0
 19 31  1  0
 19 32  1  0
M  END
$$$$
R1_C4v0_1
     RDKit          3D

 32 33  0  0  0  0  0  0  0  0999 V2000
   47.1984  -20.0141  -12.7838 C   0  0  0  0  0  0  0  0  0  0  0  0
   48.1005  -19.4579  -11.8381 O   0  0  0  0  0  0  0  0  0  0  0  0
   48.8683  -18.3923  -12.2376 C   0  0  0  0  0  0  0  0  0  0  0  0
   48.8406  -17.8371  -13.5222 C   0  0  0  0  0  0  0  0  0  0  0  0
   49.6637  -16.7550  -13.8396 C   0  0  0  0  0  0  0  0  0  0  0  0
   50.5290  -16.2309  -12.8763 C   0  0  0  0  0  0  0  0  0  0  0  0
   50.5458  -16.7597  -11.5795 C   0  0  0  0  0  0  0  0  0  0  0  0
   49.7262  -17.8468  -11.2576 C   0  0  0  0  0  0  0  0  0  0  0  0
   49.6820  -18.4427  -10.0211 O   0  0  0  0  0  0  0  0  0  0  0  0
   50.5438  -17.9402   -9.0098 C   0  0  0  0  0  0  0  0  0  0  0  0
   51.3779  -15.0679  -13.2409 C   0  0  0  0  0  0  0  0  0  0  0  0
   50.7967  -14.1249  -13.7814 O   0  0  0  0  0  0  0  0  0  0  0  0
   52.7978  -15.0668  -12.9528 C   0  0  0  0  0  0  0  0  0  0  0  0
   53.6509  -13.9862  -12.8690 C   0  0  0  0  0  0  0  0  0  0  0  0
   54.9616  -14.2554  -12.5886 N   0  0  0  0  0  0  0  0  0  0  0  0
   55.1315  -15.5496  -12.4972 C   0  0  0  0  0  0  0  0  0  0  0  0
   53.7220  -16.4980  -12.7362 S   0  0  0  0  0  0  0  0  0  0  0  0
   56.3144  -16.1163  -12.2385 N   0  0  0  0  0  0  0  0  0  0  0  0
   53.3042  -12.7059  -13.0292 N   0  0  0  0  0  0  0  0  0  0  0  0
   47.7344  -20.4299  -13.6432 H   0  0  0  0  0  0  0  0  0  0  0  0
   46.6664  -20.8362  -12.2952 H   0  0  0  0  0  0  0  0  0  0  0  0
   46.4526  -19.2773  -13.0998 H   0  0  0  0  0  0  0  0  0  0  0  0
   48.1867  -18.2210  -14.2983 H   0  0  0  0  0  0  0  0  0  0  0  0
   49.6267  -16.3221  -14.8375 H   0  0  0  0  0  0  0  0  0  0  0  0
   51.1906  -16.3041  -10.8357 H   0  0  0  0  0  0  0  0  0  0  0  0
   50.3880  -18.5409   -8.1086 H   0  0  0  0  0  0  0  0  0  0  0  0
   50.2988  -16.9019   -8.7635 H   0  0  0  0  0  0  0  0  0  0  0  0
   51.5949  -18.0418   -9.2995 H   0  0  0  0  0  0  0  0  0  0  0  0
   56.4392  -17.1171  -12.1836 H   0  0  0  0  0  0  0  0  0  0  0  0
   57.1289  -15.5292  -12.1117 H   0  0  0  0  0  0  0  0  0  0  0  0
   52.3665  -12.4236  -13.3054 H   0  0  0  0  0  0  0  0  0  0  0  0
   53.9969  -11.9704  -12.9623 H   0  0  0  0  0  0  0  0  0  0  0  0
  1  2  1  0
  2  3  1  0
  3  4  4  0
  4  5  4  0
  5  6  4  0
  6  7  4  0
  7  8  4  0
  8  9  1  0
  9 10  1  0
  6 11  1  0
 11 12  2  0
 11 13  1  0
 13 14  4  0
 14 15  4  0
 15 16  4  0
 16 17  4  0
 16 18  1  0
 14 19  1  0
  8  3  4  0
 17 13  4  0
  1 20  1  0
  1 21  1  0
  1 22  1  0
  4 23  1  0
  5 24  1  0
  7 25  1  0
 10 26  1  0
 10 27  1  0
 10 28  1  0
 18 29  1  0
 18 30  1  0
 19 31  1  0
 19 32  1  0
M  END
$$$$
R1_C4v0_2
     RDKit          3D

 32 33  0  0  0  0  0  0  0  0999 V2000
   49.1071  -20.3463  -16.3070 C   0  0  0  0  0  0  0  0  0  0  0  0
   48.6362  -19.6251  -15.1778 O   0  0  0  0  0  0  0  0  0  0  0  0
   49.3555  -18.5281  -14.7731 C   0  0  0  0  0  0  0  0  0  0  0  0
   50.5215  -18.0734  -15.4007 C   0  0  0  0  0  0  0  0  0  0  0  0
   51.1912  -16.9472  -14.9165 C   0  0  0  0  0  0  0  0  0  0  0  0
   50.7039  -16.2801  -13.7895 C   0  0  0  0  0  0  0  0  0  0  0  0
   49.5242  -16.7102  -13.1699 C   0  0  0  0  0  0  0  0  0  0  0  0
   48.8483  -17.8352  -13.6528 C   0  0  0  0  0  0  0  0  0  0  0  0
   47.6956  -18.3401  -13.1032 O   0  0  0  0  0  0  0  0  0  0  0  0
   47.0915  -17.6065  -12.0469 C   0  0  0  0  0  0  0  0  0  0  0  0
   51.3819  -15.0691  -13.2603 C   0  0  0  0  0  0  0  0  0  0  0  0
   50.6608  -14.0865  -13.0750 O   0  0  0  0  0  0  0  0  0  0  0  0
   52.8066  -15.0695  -12.9985 C   0  0  0  0  0  0  0  0  0  0  0  0
   53.6519  -13.9865  -12.8743 C   0  0  0  0  0  0  0  0  0  0  0  0
   54.9666  -14.2568  -12.6139 N   0  0  0  0  0  0  0  0  0  0  0  0
   55.1309  -15.5494  -12.4944 C   0  0  0  0  0  0  0  0  0  0  0  0
   53.7145  -16.4958  -12.6976 S   0  0  0  0  0  0  0  0  0  0  0  0
   56.3126  -16.1155  -12.2290 N   0  0  0  0  0  0  0  0  0  0  0  0
   53.2974  -12.7039  -12.9942 N   0  0  0  0  0  0  0  0  0  0  0  0
   48.4200  -21.1798  -16.4819 H   0  0  0  0  0  0  0  0  0  0  0  0
   50.1002  -20.7680  -16.1205 H   0  0  0  0  0  0  0  0  0  0  0  0
   49.1045  -19.7197  -17.2049 H   0  0  0  0  0  0  0  0  0  0  0  0
   50.9308  -18.5705  -16.2741 H   0  0  0  0  0  0  0  0  0  0  0  0
   52.0812  -16.5959  -15.4335 H   0  0  0  0  0  0  0  0  0  0  0  0
   49.1591  -16.1508  -12.3141 H   0  0  0  0  0  0  0  0  0  0  0  0
   47.7366  -17.5873  -11.1626 H   0  0  0  0  0  0  0  0  0  0  0  0
   46.8273  -16.5933  -12.3677 H   0  0  0  0  0  0  0  0  0  0  0  0
   46.1652  -18.1195  -11.7708 H   0  0  0  0  0  0  0  0  0  0  0  0
   56.4280  -17.1135  -12.1244 H   0  0  0  0  0  0  0  0  0  0  0  0
   57.1276  -15.5284  -12.1058 H   0  0  0  0  0  0  0  0  0  0  0  0
   52.3307  -12.4129  -13.1202 H   0  0  0  0  0  0  0  0  0  0  0  0
   53.9807  -11.9658  -12.8773 H   0  0  0  0  0  0  0  0  0  0  0  0
  1  2  1  0
  2  3  1  0
  3  4  4  0
  4  5  4  0
  5  6  4  0
  6  7  4  0
  7  8  4  0
  8  9  1  0
  9 10  1  0
  6 11  1  0
 11 12  2  0
 11 13  1  0
 13 14  4  0
 14 15  4  0
 15 16  4  0
 16 17  4  0
 16 18  1  0
 14 19  1  0
  8  3  4  0
 17 13  4  0
  1 20  1  0
  1 21  1  0
  1 22  1  0
  4 23  1  0
  5 24  1  0
  7 25  1  0
 10 26  1  0
 10 27  1  0
 10 28  1  0
 18 29  1  0
 18 30  1  0
 19 31  1  0
 19 32  1  0
M  END
$$$$
R1_C4v0_3
     RDKit          3D

 32 33  0  0  0  0  0  0  0  0999 V2000
   48.0203  -20.0311  -10.7142 C   0  0  0  0  0  0  0  0  0  0  0  0
   48.0203  -19.4465  -12.0085 O   0  0  0  0  0  0  0  0  0  0  0  0
   48.8616  -18.3849  -12.2315 C   0  0  0  0  0  0  0  0  0  0  0  0
   49.7183  -17.8404  -11.2672 C   0  0  0  0  0  0  0  0  0  0  0  0
   50.5439  -16.7595  -11.5852 C   0  0  0  0  0  0  0  0  0  0  0  0
   50.5267  -16.2287  -12.8778 C   0  0  0  0  0  0  0  0  0  0  0  0
   49.6549  -16.7481  -13.8425 C   0  0  0  0  0  0  0  0  0  0  0  0
   48.8241  -17.8282  -13.5282 C   0  0  0  0  0  0  0  0  0  0  0  0
   47.9496  -18.4137  -14.4102 O   0  0  0  0  0  0  0  0  0  0  0  0
   47.7991  -17.8117  -15.6884 C   0  0  0  0  0  0  0  0  0  0  0  0
   51.3786  -15.0681  -13.2434 C   0  0  0  0  0  0  0  0  0  0  0  0
   50.7997  -14.1268  -13.7897 O   0  0  0  0  0  0  0  0  0  0  0  0
   52.7977  -15.0670  -12.9526 C   0  0  0  0  0  0  0  0  0  0  0  0
   53.6508  -13.9862  -12.8687 C   0  0  0  0  0  0  0  0  0  0  0  0
   54.9616  -14.2554  -12.5885 N   0  0  0  0  0  0  0  0  0  0  0  0
   55.1315  -15.5496  -12.4973 C   0  0  0  0  0  0  0  0  0  0  0  0
   53.7220  -16.4980  -12.7364 S   0  0  0  0  0  0  0  0  0  0  0  0
   56.3146  -16.1161  -12.2393 N   0  0  0  0  0  0  0  0  0  0  0  0
   53.3043  -12.7059  -13.0295 N   0  0  0  0  0  0  0  0  0  0  0  0
   47.6958  -19.3111   -9.9557 H   0  0  0  0  0  0  0  0  0  0  0  0
   47.3002  -20.8550  -10.7192 H   0  0  0  0  0  0  0  0  0  0  0  0
   49.0021  -20.4495  -10.4696 H   0  0  0  0  0  0  0  0  0  0  0  0
   49.7613  -18.2312  -10.2558 H   0  0  0  0  0  0  0  0  0  0  0  0
   51.1837  -16.3355  -10.8147 H   0  0  0  0  0  0  0  0  0  0  0  0
   49.6476  -16.2925  -14.8279 H   0  0  0  0  0  0  0  0  0  0  0  0
   48.7280  -17.8748  -16.2644 H   0  0  0  0  0  0  0  0  0  0  0  0
   47.0323  -18.3710  -16.2331 H   0  0  0  0  0  0  0  0  0  0  0  0
   47.4557  -16.7756  -15.6012 H   0  0  0  0  0  0  0  0  0  0  0  0
   56.4397  -17.1169  -12.1846 H   0  0  0  0  0  0  0  0  0  0  0  0
   57.1289  -15.5287  -12.1122 H   0  0  0  0  0  0  0  0  0  0  0  0
   52.3668  -12.4234  -13.3059 H   0  0  0  0  0  0  0  0  0  0  0  0
   53.9972  -11.9706  -12.9620 H   0  0  0  0  0  0  0  0  0  0  0  0
  1  2  1  0
  2  3  1  0
  3  4  4  0
  4  5  4  0
  5  6  4  0
  6  7  4  0
  7  8  4  0
  8  9  1  0
  9 10  1  0
  6 11  1  0
 11 12  2  0
 11 13  1  0
 13 14  4  0
 14 15  4  0
 15 16  4  0
 16 17  4  0
 16 18  1  0
 14 19  1  0
  8  3  4  0
 17 13  4  0
  1 20  1  0
  1 21  1  0
  1 22  1  0
  4 23  1  0
  5 24  1  0
  7 25  1  0
 10 26  1  0
 10 27  1  0
 10 28  1  0
 18 29  1  0
 18 30  1  0
 19 31  1  0
 19 32  1  0
M  END
$$$$
R1_C5v0_0
     RDKit          3D

 36 37  0  0  0  0  0  0  0  0999 V2000
   52.1910  -18.4982  -17.0665 C   0  0  0  0  0  0  0  0  0  0  0  0
   50.9263  -18.8026  -16.4938 O   0  0  0  0  0  0  0  0  0  0  0  0
   50.5338  -18.0749  -15.4007 C   0  0  0  0  0  0  0  0  0  0  0  0
   51.1914  -16.9423  -14.9220 C   0  0  0  0  0  0  0  0  0  0  0  0
   50.7062  -16.2855  -13.7824 C   0  0  0  0  0  0  0  0  0  0  0  0
   49.5409  -16.7235  -13.1379 C   0  0  0  0  0  0  0  0  0  0  0  0
   48.8683  -17.8504  -13.6079 C   0  0  0  0  0  0  0  0  0  0  0  0
   49.3670  -18.5118  -14.7458 C   0  0  0  0  0  0  0  0  0  0  0  0
   48.7393  -19.6565  -15.1879 O   0  0  0  0  0  0  0  0  0  0  0  0
   47.7353  -19.3202  -16.1443 C   0  0  0  0  0  0  0  0  0  0  0  0
   47.7329  -18.3756  -13.0485 O   0  0  0  0  0  0  0  0  0  0  0  0
   47.2318  -17.7556  -11.8718 C   0  0  0  0  0  0  0  0  0  0  0  0
   51.3825  -15.0700  -13.2623 C   0  0  0  0  0  0  0  0  0  0  0  0
   50.6599  -14.0867  -13.0890 O   0  0  0  0  0  0  0  0  0  0  0  0
   52.8066  -15.0694  -12.9978 C   0  0  0  0  0  0  0  0  0  0  0  0
   53.6518  -13.9864  -12.8739 C   0  0  0  0  0  0  0  0  0  0  0  0
   54.9663  -14.2569  -12.6139 N   0  0  0  0  0  0  0  0  0  0  0  0
   55.1310  -15.5495  -12.4942 C   0  0  0  0  0  0  0  0  0  0  0  0
   53.7147  -16.4959  -12.6984 S   0  0  0  0  0  0  0  0  0  0  0  0
   56.3125  -16.1157  -12.2287 N   0  0  0  0  0  0  0  0  0  0  0  0
   53.2976  -12.7039  -12.9948 N   0  0  0  0  0  0  0  0  0  0  0  0
   52.1824  -17.5056  -17.5281 H   0  0  0  0  0  0  0  0  0  0  0  0
   52.3856  -19.2304  -17.8561 H   0  0  0  0  0  0  0  0  0  0  0  0
   52.9942  -18.5840  -16.3270 H   0  0  0  0  0  0  0  0  0  0  0  0
   52.0684  -16.5479  -15.4243 H   0  0  0  0  0  0  0  0  0  0  0  0
   49.1869  -16.1656  -12.2762 H   0  0  0  0  0  0  0  0  0  0  0  0
   48.1683  -18.8298  -17.0230 H   0  0  0  0  0  0  0  0  0  0  0  0
   47.2645  -20.2507  -16.4756 H   0  0  0  0  0  0  0  0  0  0  0  0
   46.9578  -18.6876  -15.7027 H   0  0  0  0  0  0  0  0  0  0  0  0
   46.9195  -16.7255  -12.0723 H   0  0  0  0  0  0  0  0  0  0  0  0
   46.3476  -18.3143  -11.5501 H   0  0  0  0  0  0  0  0  0  0  0  0
   47.9652  -17.7967  -11.0598 H   0  0  0  0  0  0  0  0  0  0  0  0
   56.4275  -17.1136  -12.1217 H   0  0  0  0  0  0  0  0  0  0  0  0
   57.1275  -15.5289  -12.1034 H   0  0  0  0  0  0  0  0  0  0  0  0
   52.3314  -12.4116  -13.1213 H   0  0  0  0  0  0  0  0  0  0  0  0
   53.9814  -11.9661  -12.8775 H   0  0  0  0  0  0  0  0  0  0  0  0
  1  2  1  0
  2  3  1  0
  3  4  4  0
  4  5  4  0
  5  6  4  0
  6  7  4  0
  7  8  4  0
  8  9  1  0
  9 10  1  0
  7 11  1  0
 11 12  1  0
  5 13  1  0
 13 14  2  0
 13 15  1  0
 15 16  4  0
 16 17  4  0
 17 18  4  0
 18 19  4  0
 18 20  1  0
 16 21  1  0
  8  3  4  0
 19 15  4  0
  1 22  1  0
  1 23  1  0
  1 24  1  0
  4 25  1  0
  6 26  1  0
 10 27  1  0
 10 28  1  0
 10 29  1  0
 12 30  1  0
 12 31  1  0
 12 32  1  0
 20 33  1  0
 20 34  1  0
 21 35  1  0
 21 36  1  0
M  END
$$$$
R1_C5v0_1
     RDKit          3D

 36 37  0  0  0  0  0  0  0  0999 V2000
   47.2318  -17.7556  -11.8718 C   0  0  0  0  0  0  0  0  0  0  0  0
   47.7329  -18.3756  -13.0485 O   0  0  0  0  0  0  0  0  0  0  0  0
   48.8683  -17.8504  -13.6079 C   0  0  0  0  0  0  0  0  0  0  0  0
   49.5409  -16.7235  -13.1379 C   0  0  0  0  0  0  0  0  0  0  0  0
   50.7062  -16.2855  -13.7824 C   0  0  0  0  0  0  0  0  0  0  0  0
   51.1914  -16.9423  -14.9220 C   0  0  0  0  0  0  0  0  0  0  0  0
   50.5338  -18.0749  -15.4007 C   0  0  0  0  0  0  0  0  0  0  0  0
   49.3670  -18.5118  -14.7458 C   0  0  0  0  0  0  0  0  0  0  0  0
   48.7393  -19.6565  -15.1879 O   0  0  0  0  0  0  0  0  0  0  0  0
   47.7353  -19.3202  -16.1443 C   0  0  0  0  0  0  0  0  0  0  0  0
   50.9263  -18.8026  -16.4938 O   0  0  0  0  0  0  0  0  0  0  0  0
   52.1910  -18.4982  -17.0665 C   0  0  0  0  0  0  0  0  0  0  0  0
   51.3825  -15.0700  -13.2623 C   0  0  0  0  0  0  0  0  0  0  0  0
   50.6599  -14.0867  -13.0890 O   0  0  0  0  0  0  0  0  0  0  0  0
   52.8066  -15.0694  -12.9978 C   0  0  0  0  0  0  0  0  0  0  0  0
   53.6518  -13.9864  -12.8739 C   0  0  0  0  0  0  0  0  0  0  0  0
   54.9663  -14.2569  -12.6139 N   0  0  0  0  0  0  0  0  0  0  0  0
   55.1310  -15.5495  -12.4942 C   0  0  0  0  0  0  0  0  0  0  0  0
   53.7147  -16.4959  -12.6984 S   0  0  0  0  0  0  0  0  0  0  0  0
   56.3125  -16.1157  -12.2287 N   0  0  0  0  0  0  0  0  0  0  0  0
   53.2976  -12.7039  -12.9948 N   0  0  0  0  0  0  0  0  0  0  0  0
   46.3476  -18.3143  -11.5501 H   0  0  0  0  0  0  0  0  0  0  0  0
   47.9652  -17.7967  -11.0598 H   0  0  0  0  0  0  0  0  0  0  0  0
   46.9195  -16.7255  -12.0723 H   0  0  0  0  0  0  0  0  0  0  0  0
   49.1869  -16.1656  -12.2762 H   0  0  0  0  0  0  0  0  0  0  0  0
   52.0684  -16.5479  -15.4243 H   0  0  0  0  0  0  0  0  0  0  0  0
   46.9578  -18.6876  -15.7027 H   0  0  0  0  0  0  0  0  0  0  0  0
   48.1683  -18.8298  -17.0230 H   0  0  0  0  0  0  0  0  0  0  0  0
   47.2645  -20.2507  -16.4756 H   0  0  0  0  0  0  0  0  0  0  0  0
   52.3856  -19.2304  -17.8561 H   0  0  0  0  0  0  0  0  0  0  0  0
   52.9942  -18.5840  -16.3270 H   0  0  0  0  0  0  0  0  0  0  0  0
   52.1824  -17.5056  -17.5281 H   0  0  0  0  0  0  0  0  0  0  0  0
   57.1275  -15.5289  -12.1034 H   0  0  0  0  0  0  0  0  0  0  0  0
   56.4275  -17.1136  -12.1217 H   0  0  0  0  0  0  0  0  0  0  0  0
   52.3314  -12.4116  -13.1213 H   0  0  0  0  0  0  0  0  0  0  0  0
   53.9814  -11.9661  -12.8775 H   0  0  0  0  0  0  0  0  0  0  0  0
  1  2  1  0
  2  3  1  0
  3  4  4  0
  4  5  4  0
  5  6  4  0
  6  7  4  0
  7  8  4  0
  8  9  1  0
  9 10  1  0
  7 11  1  0
 11 12  1  0
  5 13  1  0
 13 14  2  0
 13 15  1  0
 15 16  4  0
 16 17  4  0
 17 18  4  0
 18 19  4  0
 18 20  1  0
 16 21  1  0
  8  3  4  0
 19 15  4  0
  1 22  1  0
  1 23  1  0
  1 24  1  0
  4 25  1  0
  6 26  1  0
 10 27  1  0
 10 28  1  0
 10 29  1  0
 12 30  1  0
 12 31  1  0
 12 32  1  0
 20 33  1  0
 20 34  1  0
 21 35  1  0
 21 36  1  0
M  END
$$$$
R1_C5v0_2
     RDKit          3D

 36 37  0  0  0  0  0  0  0  0999 V2000
   50.3899  -17.8062   -8.9470 C   0  0  0  0  0  0  0  0  0  0  0  0
   49.6847  -18.4309  -10.0111 O   0  0  0  0  0  0  0  0  0  0  0  0
   49.7352  -17.8337  -11.2437 C   0  0  0  0  0  0  0  0  0  0  0  0
   50.5482  -16.7484  -11.5698 C   0  0  0  0  0  0  0  0  0  0  0  0
   50.5287  -16.2299  -12.8725 C   0  0  0  0  0  0  0  0  0  0  0  0
   49.6656  -16.7549  -13.8442 C   0  0  0  0  0  0  0  0  0  0  0  0
   48.8421  -17.8354  -13.5315 C   0  0  0  0  0  0  0  0  0  0  0  0
   48.9047  -18.3843  -12.2376 C   0  0  0  0  0  0  0  0  0  0  0  0
   48.0674  -19.4284  -11.9086 O   0  0  0  0  0  0  0  0  0  0  0  0
   48.7148  -20.6710  -12.1759 C   0  0  0  0  0  0  0  0  0  0  0  0
   47.9726  -18.4328  -14.4065 O   0  0  0  0  0  0  0  0  0  0  0  0
   47.7000  -17.7479  -15.6222 C   0  0  0  0  0  0  0  0  0  0  0  0
   51.3784  -15.0685  -13.2411 C   0  0  0  0  0  0  0  0  0  0  0  0
   50.7970  -14.1288  -13.7868 O   0  0  0  0  0  0  0  0  0  0  0  0
   52.7979  -15.0668  -12.9527 C   0  0  0  0  0  0  0  0  0  0  0  0
   53.6508  -13.9861  -12.8691 C   0  0  0  0  0  0  0  0  0  0  0  0
   54.9614  -14.2555  -12.5886 N   0  0  0  0  0  0  0  0  0  0  0  0
   55.1316  -15.5497  -12.4973 C   0  0  0  0  0  0  0  0  0  0  0  0
   53.7220  -16.4981  -12.7361 S   0  0  0  0  0  0  0  0  0  0  0  0
   56.3147  -16.1159  -12.2388 N   0  0  0  0  0  0  0  0  0  0  0  0
   53.3042  -12.7058  -13.0292 N   0  0  0  0  0  0  0  0  0  0  0  0
   51.4704  -17.8392   -9.1204 H   0  0  0  0  0  0  0  0  0  0  0  0
   50.1826  -18.3696   -8.0321 H   0  0  0  0  0  0  0  0  0  0  0  0
   50.0449  -16.7787   -8.7911 H   0  0  0  0  0  0  0  0  0  0  0  0
   51.1933  -16.2875  -10.8292 H   0  0  0  0  0  0  0  0  0  0  0  0
   49.6617  -16.3030  -14.8315 H   0  0  0  0  0  0  0  0  0  0  0  0
   48.9476  -20.7798  -13.2407 H   0  0  0  0  0  0  0  0  0  0  0  0
   48.0255  -21.4739  -11.8978 H   0  0  0  0  0  0  0  0  0  0  0  0
   49.6246  -20.7845  -11.5762 H   0  0  0  0  0  0  0  0  0  0  0  0
   47.3439  -16.7291  -15.4357 H   0  0  0  0  0  0  0  0  0  0  0  0
   48.5787  -17.7468  -16.2751 H   0  0  0  0  0  0  0  0  0  0  0  0
   46.9025  -18.2899  -16.1395 H   0  0  0  0  0  0  0  0  0  0  0  0
   57.1290  -15.5284  -12.1124 H   0  0  0  0  0  0  0  0  0  0  0  0
   56.4408  -17.1166  -12.1844 H   0  0  0  0  0  0  0  0  0  0  0  0
   53.9975  -11.9707  -12.9618 H   0  0  0  0  0  0  0  0  0  0  0  0
   52.3672  -12.4220  -13.3057 H   0  0  0  0  0  0  0  0  0  0  0  0
  1  2  1  0
  2  3  1  0
  3  4  4  0
  4  5  4  0
  5  6  4  0
  6  7  4  0
  7  8  4  0
  8  9  1  0
  9 10  1  0
  7 11  1  0
 11 12  1  0
  5 13  1  0
 13 14  2  0
 13 15  1  0
 15 16  4  0
 16 17  4  0
 17 18  4  0
 18 19  4  0
 18 20  1  0
 16 21  1  0
  8  3  4  0
 19 15  4  0
  1 22  1  0
  1 23  1  0
  1 24  1  0
  4 25  1  0
  6 26  1  0
 10 27  1  0
 10 28  1  0
 10 29  1  0
 12 30  1  0
 12 31  1  0
 12 32  1  0
 20 33  1  0
 20 34  1  0
 21 35  1  0
 21 36  1  0
M  END
$$$$
